 xtb: 6.7.1 (unknown)
          08282614073D

  9  8  0     0  0            999 V2000
    1.4182   -0.5504    0.1000 C   0  0  0  0  0  0  0  0  0  0  0  0
    0.0000    0.5595    0.0000 C   0  0  0  0  0  0  0  0  0  0  0  0
   -1.1901   -0.2277    0.0000 O   0  0  0  0  0  0  0  0  0  0  0  0
   -1.9466    0.3815    0.0000 H   0  0  0  0  0  0  0  0  0  0  0  0
    0.0426    1.2075    0.8869 H   0  0  0  0  0  0  0  0  0  0  0  0
    0.0426    1.2075   -0.8869 H   0  0  0  0  0  0  0  0  0  0  0  0
    2.1159    0.1448    0.0000 H   0  0  0  0  0  0  0  0  0  0  0  0
    1.1286   -1.0372    0.8859 H   0  0  0  0  0  0  0  0  0  0  0  0
    1.1286   -1.0372   -0.8859 H   0  0  0  0  0  0  0  0  0  0  0  0
  1  2  1  0  0  0  0
  2  3  1  0  0  0  0
  3  4  1  0  0  0  0
  2  5  1  0  0  0  0
  2  6  1  0  0  0  0
  1  7  1  0  0  0  0
  1  8  1  0  0  0  0
  1  9  1  0  0  0  0
M  END
