 xtb: 6.7.1 (unknown)
          08282614073D

  9  8  0     0  0            999 V2000
    1.2052   -0.4219    0.0177 C   0  0  0  0  0  0  0  0  0  0  0  0
    0.0246    0.5368    0.0092 C   0  0  0  0  0  0  0  0  0  0  0  0
   -1.1668   -0.2220    0.0062 O   0  0  0  0  0  0  0  0  0  0  0  0
   -1.9229    0.3728   -0.0067 H   0  0  0  0  0  0  0  0  0  0  0  0
    0.0628    1.1828    0.8989 H   0  0  0  0  0  0  0  0  0  0  0  0
    0.0702    1.1789   -0.8829 H   0  0  0  0  0  0  0  0  0  0  0  0
    2.1393    0.1332    0.0157 H   0  0  0  0  0  0  0  0  0  0  0  0
    1.1625   -1.0513    0.9024 H   0  0  0  0  0  0  0  0  0  0  0  0
    1.1648   -1.0610   -0.8607 H   0  0  0  0  0  0  0  0  0  0  0  0
  1  2  1  0  0  0  0
  2  3  1  0  0  0  0
  3  4  1  0  0  0  0
  2  5  1  0  0  0  0
  2  6  1  0  0  0  0
  1  7  1  0  0  0  0
  1  8  1  0  0  0  0
  1  9  1  0  0  0  0
M  END
