 xtb: 6.7.1 (unknown)
          08282610043D

  9  8  0     0  0            999 V2000
    1.2080   -0.4222    0.0177 C   0  0  0  0  0  0  0  0  0  0  0  0
    0.0264    0.5364    0.0093 C   0  0  0  0  0  0  0  0  0  0  0  0
   -1.1721   -0.2194    0.0075 O   0  0  0  0  0  0  0  0  0  0  0  0
   -1.9315    0.3774   -0.0074 H   0  0  0  0  0  0  0  0  0  0  0  0
    0.0644    1.1790    0.8993 H   0  0  0  0  0  0  0  0  0  0  0  0
    0.0708    1.1740   -0.8838 H   0  0  0  0  0  0  0  0  0  0  0  0
    2.1389    0.1363    0.0165 H   0  0  0  0  0  0  0  0  0  0  0  0
    1.1657   -1.0523    0.9021 H   0  0  0  0  0  0  0  0  0  0  0  0
    1.1689   -1.0608   -0.8613 H   0  0  0  0  0  0  0  0  0  0  0  0
  1  2  1  0  0  0  0
  2  3  1  0  0  0  0
  3  4  1  0  0  0  0
  2  5  1  0  0  0  0
  2  6  1  0  0  0  0
  1  7  1  0  0  0  0
  1  8  1  0  0  0  0
  1  9  1  0  0  0  0
M  END
